39

C            2.22934206000000       -1.26375759000000        0.68371909000000
C            2.28158720000000        0.17526736000000        0.24446482000000
N            1.07751903000000        0.68845263000000       -0.11138669000000
C            0.92766202000000        2.00760156000000       -0.39400028000000
C            2.03095097000000        2.87112410000000       -0.32952961000000
C            3.29042609000000        2.35206951000000        0.00062251000000
C            3.42155580000000        0.98597375000000        0.28562791000000
C           -0.46179965000000        2.43581733000000       -0.79321757000000
P           -1.72276986000000        1.20829520000000       -0.11988634000000
H            4.38916475000000        0.55422979000000        0.55754772000000
H            1.90090963000000        3.93478693000000       -0.54860748000000
H            4.16423220000000        3.01037348000000        0.03926767000000
C            1.72162376000000       -2.32599418000000       -1.46706228000000
C            0.89515918000000       -3.28121792000000        0.62809508000000
H           -0.55298064000000        2.35667091000000       -1.89411302000000
H            1.82326294000000       -1.25460762000000        1.71485737000000
H            3.22678123000000       -1.74481329000000        0.65077788000000
C           -3.19417300000000        1.49854417000000       -1.18870498000000
C           -2.21535271000000        1.92624960000000        1.50994332000000
H           -4.01488282000000        0.85462369000000       -0.83033218000000
H           -3.52108836000000        2.55308519000000       -1.16892242000000
H           -2.94183227000000        1.19603757000000       -2.21784989000000
H           -3.08067893000000        1.35789888000000        1.89223815000000
H           -1.37026601000000        1.76188687000000        2.19905160000000
H           -2.47811893000000        2.99699945000000        1.44678261000000
H            1.80132425000000       -3.90283762000000        0.78450306000000
H            0.46084788000000       -2.97040985000000        1.59137142000000
H            0.15511648000000       -3.85113240000000        0.04676705000000
H            2.62583777000000       -2.96997336000000       -1.42745344000000
H            0.92624614000000       -2.82866640000000       -2.03557756000000
H            1.96286250000000       -1.37761512000000       -1.97011177000000
C           -1.96679093000000       -1.81207395000000       -0.21667655000000
O           -2.90250672000000       -2.51561928000000       -0.31712478000000
Ru          -0.52761306000000       -0.66165773000000       -0.10993849000000
H           -0.54751212000000       -0.60916247000000       -1.75694704000000
O           -0.14464432000000       -0.69054709000000        1.99512044000000
H           -0.95297155000000       -0.99660875000000        2.44148419000000
H           -0.66328457000000        3.48492011000000       -0.51170604000000
N            1.22496156000000       -2.03695347000000       -0.10513049000000
