19

C           -0.57502200000000       -1.29836600000000        0.75007100000000
C           -1.92930100000000       -1.34370800000000        1.08475100000000
C           -2.94722600000000       -0.63129900000000        0.42296400000000
C           -2.70781300000000        0.19779700000000       -0.69430700000000
C           -1.42207200000000        0.39056700000000       -1.18041300000000
Rh           0.31309200000000        0.02021600000000       -0.38482800000000
P            0.49101000000000        1.97255500000000        0.73434700000000
P            2.42912400000000       -0.98184200000000       -0.02285400000000
H            0.08895600000000       -1.89538300000000        1.40253400000000
H           -2.23621800000000       -2.01113400000000        1.90415900000000
H           -3.98331200000000       -0.77766100000000        0.75472100000000
H           -1.31162700000000        0.89114000000000       -2.16741100000000
H           -3.57836500000000        0.59994000000000       -1.23258900000000
H            3.11656700000000       -1.46461400000000       -1.17511700000000
H            2.46754600000000       -2.20072400000000        0.71804700000000
H            3.59504100000000       -0.41813400000000        0.58900900000000
H            1.29853500000000        3.13588500000000        0.50288200000000
H            0.86763700000000        1.80867300000000        2.09579800000000
H           -0.72730400000000        2.67165900000000        0.95444800000000
