14

C       0.05083404       0.47756955       0.03067754
C       0.22099793      -0.53384083       1.12248949
H       1.00063556       0.99546491      -0.11008883
H      -0.23550427      -0.01507412      -0.90051555
O      -0.06214314      -1.70052772       1.01406801
H       0.61484477      -0.11647527       2.06863484
C      -3.09105601       0.69502179       1.56213016
H      -4.07672239       0.25168355       1.53446340
C      -2.38605593       0.89986170       0.46164886
H      -2.72406577       0.97143579       2.54163695
H      -2.77578741       0.61350077      -0.51143129
C      -1.01585926       1.51412664       0.44531292
H      -0.76139644       1.92312285       1.42742393
H      -0.99072867       2.32977240      -0.28155745
