44
31357
P           -0.01860000000000        0.96240000000000        0.86270000000000
O            1.24730000000000        1.23990000000000       -0.10990000000000
O           -1.28770000000000        1.20560000000000       -0.11480000000000
O            0.00250000000000       -0.63950000000000        1.10700000000000
O           -0.03210000000000        1.78240000000000        2.12160000000000
C            3.56530000000000        1.33540000000000       -0.69040000000000
C           -3.60530000000000        1.23840000000000       -0.70410000000000
C            0.03500000000000       -2.95840000000000        0.52240000000000
C            2.55080000000000        1.00760000000000        0.39580000000000
C           -2.58640000000000        0.93820000000000        0.38600000000000
C            0.01670000000000       -1.52800000000000        0.00260000000000
C            4.99570000000000        1.09180000000000       -0.21750000000000
C           -5.03260000000000        0.98640000000000       -0.22620000000000
C            0.06690000000000       -3.97200000000000       -0.61800000000000
C            6.00320000000000        1.37910000000000       -1.31920000000000
C           -6.04940000000000        1.32860000000000       -1.30350000000000
C            0.12870000000000       -5.39790000000000       -0.09450000000000
H            3.35100000000000        0.72850000000000       -1.57910000000000
H            3.44050000000000        2.37950000000000       -1.00350000000000
H           -3.49160000000000        2.28050000000000       -1.02810000000000
H           -3.38590000000000        0.62470000000000       -1.58670000000000
H            0.90630000000000       -3.09410000000000        1.17540000000000
H           -0.84420000000000       -3.12700000000000        1.15680000000000
H            2.64090000000000       -0.03930000000000        0.70250000000000
H            2.71020000000000        1.64300000000000        1.27340000000000
H           -2.76500000000000        1.56970000000000        1.26270000000000
H           -2.65050000000000       -0.11060000000000        0.69310000000000
H            0.90370000000000       -1.33520000000000       -0.60870000000000
H           -0.87220000000000       -1.36000000000000       -0.61330000000000
H            5.10860000000000        0.05110000000000        0.10790000000000
H            5.21510000000000        1.72800000000000        0.64780000000000
H           -5.23930000000000        1.58980000000000        0.66540000000000
H           -5.14910000000000       -0.06540000000000        0.05960000000000
H            0.93850000000000       -3.78720000000000       -1.25660000000000
H           -0.82500000000000       -3.85540000000000       -1.24460000000000
H            5.83130000000000        0.73360000000000       -2.18640000000000
H            5.93810000000000        2.42120000000000       -1.64800000000000
H            7.02080000000000        1.19960000000000       -0.95850000000000
H           -5.98120000000000        2.38380000000000       -1.58660000000000
H           -5.89010000000000        0.72100000000000       -2.20000000000000
H           -7.06450000000000        1.13910000000000       -0.94050000000000
H            1.02870000000000       -5.55600000000000        0.50830000000000
H           -0.74450000000000       -5.62650000000000        0.52480000000000
H            0.14930000000000       -6.10710000000000       -0.92790000000000
